src/examples/case14_twoarea/two_area_02pulim_1_5/results/res_branch_2.csv
branch,from_bus,to_bus,X,B,G,Bfr,Bto,p_from,p_to,q_from,q_to,p_loss,q_loss,s_from,s_to,rate_a,ang_deg,angmin,angmax
7,4,5,0.07018333333333335,-13.75086112958213,2.6156351851805475,1.5591651757565013e-14,3.8189916973205344e-21,0.1973580399995363,-0.1968021898379293,0.032400833286749656,-0.029478629745302392,0.0005558501616070022,0.0029222035414472637,0.20000002487533425,0.19899771741571556,0.2,0.8043507547358661,-60.0001403060998,60.0001403060998
4,2,4,0.2938666666666667,-3.274849999726177,0.6475778135801294,0.028333333333333335,0.028333333333333335,0.1074139809178328,-0.10599334292813284,-0.12929109062045305,0.08346826023796515,0.0014206379896999632,-0.0458228303824879,0.16808911151660821,0.13491308021179207,0.2,2.303288257119884,-60.0001403060998,60.0001403060998
2,1,5,0.37173333333333336,-2.6344464415531252,0.3829065851069972,0.04099999999985057,0.041,0.16152484008810775,-0.15994692303035263,-0.0744171525516727,0.007834230254232842,0.0015779170577551183,-0.06658292229743985,0.17784315156729455,0.16013866912945757,0.2,3.7636126134011714,-60.0001403060998,60.0001403060998
3,2,3,0.32995,-2.9705137433789894,0.42304725201205323,0.0364999999998491,0.03649999999975347,0.24112578059012307,-0.23810959861488457,-0.016525673847963347,-0.027767388708261353,0.0030161819752385077,-0.0442930625562247,0.24169141474476383,0.23972319209500176,0.2,5.0394955319010455,-60.0001403060998,60.0001403060998
5,2,5,0.28980000000000006,-3.32235273589818,0.6528916090731394,0.028833333333333336,0.028833333333333336,0.15525033195117796,-0.15316980304567,-0.12188449662921393,0.07880604949169026,0.0020805289055079723,-0.043078447137523665,0.19737906699928393,0.17225383015055448,0.2,3.10763901185575,-60.0001403060998,60.0001403060998
6,3,4,0.28505,-3.3244369666260627,0.7815138436541887,0.010666666666595864,0.010666666666666668,-0.1748903913859412,0.1777919301505379,-0.09702247662716713,0.08969273126112215,0.0029015387645967006,-0.007329745366044985,0.20000002492499067,0.1991350206963447,0.2,-2.7362072747811617,-60.0001403060998,60.0001403060998
1,1,2,0.09861666666666669,-9.76322277877719,1.9186539542271601,0.043999999999850575,0.04399999999981489,0.12997949138828957,-0.12935375641170427,0.07441714263039112,-0.15253725998587436,0.0006257349765853015,-0.07812011735548324,0.14977509572298867,0.20000002495454033,0.2,0.6559736015454213,-60.0001403060998,60.0001403060998
